Version 4
SHEET 1 880 680
WIRE 32 80 -96 80
WIRE 144 80 32 80
WIRE 240 80 144 80
WIRE 368 80 304 80
WIRE -96 128 -96 80
WIRE 32 128 32 80
WIRE 144 144 144 80
WIRE 368 144 368 80
WIRE -96 272 -96 208
WIRE 32 272 32 208
WIRE 32 272 -96 272
WIRE 144 272 144 208
WIRE 144 272 32 272
WIRE 368 272 368 224
WIRE 368 272 144 272
WIRE 144 288 144 272
FLAG 144 288 0
SYMBOL ind 16 112 R0
SYMATTR InstName L1
SYMATTR Value 0.75
SYMBOL cap 128 144 R0
SYMATTR InstName C1
SYMATTR Value 0.66666666
SYMBOL cap 304 64 R90
WINDOW 0 0 32 VBottom 2
WINDOW 3 32 32 VTop 2
SYMATTR InstName C2
SYMATTR Value 2
SYMBOL res 352 128 R0
SYMATTR InstName RL
SYMATTR Value 1
SYMBOL voltage -96 112 R0
WINDOW 123 24 124 Left 2
WINDOW 39 0 0 Left 0
SYMATTR Value2 AC 1
SYMATTR InstName V1
SYMATTR Value ""
TEXT -136 392 Left 2 !.net I(RL) V1
TEXT -144 432 Left 2 !.ac dec 1k 1m 1k
