Version 4
SHEET 1 880 680
WIRE 48 128 -48 128
WIRE 176 128 112 128
WIRE 256 128 176 128
WIRE 464 128 320 128
WIRE 176 160 176 128
WIRE -48 208 -48 128
WIRE 464 224 464 128
WIRE 176 288 176 240
WIRE -48 384 -48 288
WIRE 464 384 464 304
WIRE 464 384 -48 384
WIRE 176 400 176 352
FLAG 176 400 0
SYMBOL cap 112 112 R90
WINDOW 0 0 32 VBottom 2
WINDOW 3 32 32 VTop 2
SYMATTR InstName C1
SYMATTR Value 5
SYMBOL res 160 144 R0
SYMATTR InstName R1
SYMATTR Value 0.16
SYMBOL cap 160 288 R0
SYMATTR InstName C2
SYMATTR Value 6.25
SYMBOL cap 320 112 R90
WINDOW 0 0 32 VBottom 2
WINDOW 3 32 32 VTop 2
SYMATTR InstName C3
SYMATTR Value 1.25
SYMBOL voltage -48 192 R0
WINDOW 123 24 124 Left 2
WINDOW 39 0 0 Left 0
SYMATTR Value2 AC 1
SYMATTR InstName V1
SYMATTR Value ""
SYMBOL res 448 208 R0
SYMATTR InstName RL
SYMATTR Value 1
TEXT -96 464 Left 2 !.net I(RL) V1
TEXT -88 496 Left 2 !.ac dec 1k 1m 1k
