Version 4
SHEET 1 880 680
WIRE 16 128 -48 128
WIRE 160 128 96 128
WIRE 224 128 160 128
WIRE 368 128 304 128
WIRE -48 160 -48 128
WIRE 368 160 368 128
WIRE 160 176 160 128
WIRE -48 288 -48 240
WIRE 160 288 160 240
WIRE 160 288 -48 288
WIRE 368 288 368 240
WIRE 368 288 160 288
WIRE 160 320 160 288
FLAG 160 320 0
SYMBOL ind 0 144 R270
WINDOW 0 32 56 VTop 2
WINDOW 3 5 56 VBottom 2
SYMATTR InstName L1
SYMATTR Value 1
SYMBOL ind 208 144 R270
WINDOW 0 32 56 VTop 2
WINDOW 3 5 56 VBottom 2
SYMATTR InstName L2
SYMATTR Value 1
SYMBOL cap 144 176 R0
SYMATTR InstName C3
SYMATTR Value 2
SYMBOL res 352 144 R0
SYMATTR InstName RL
SYMATTR Value 1
SYMBOL voltage -48 144 R0
WINDOW 123 -91 23 Left 2
WINDOW 39 -102 103 Left 2
SYMATTR Value2 AC 1
SYMATTR SpiceLine Rser=1
SYMATTR InstName V1
SYMATTR Value ""
TEXT -232 408 Left 2 !.net I(RL) V1
TEXT -232 440 Left 2 !.ac dec 1k 1m 1k
